Standard file
     RDKit          3D

 75 76  0  0  0  0  0  0  0  0999 V2000
    3.3044   -2.4375    1.0903 C   0  0  0  0  0  0  0  0  0  0  0  0
    2.4701   -1.1582    1.0557 C   0  0  0  0  0  0  0  0  0  0  0  0
    3.2631    0.0182    1.6333 C   0  0  0  0  0  0  0  0  0  0  0  0
    1.1665   -1.2848    1.8066 C   0  0  0  0  0  0  0  0  0  0  0  0
    1.1493   -1.9028    3.0479 C   0  0  0  0  0  0  0  0  0  0  0  0
    0.0080   -1.9363    3.8304 C   0  0  0  0  0  0  0  0  0  0  0  0
    0.0154   -2.6266    5.1726 C   0  0  0  0  0  0  0  0  0  0  0  0
   -1.0004   -3.7702    5.2015 C   0  0  0  0  0  0  0  0  0  0  0  0
   -0.2585   -1.6296    6.3006 C   0  0  0  0  0  0  0  0  0  0  0  0
   -1.1229   -1.2900    3.3599 C   0  0  0  0  0  0  0  0  0  0  0  0
   -1.1463   -0.6536    2.1281 C   0  0  0  0  0  0  0  0  0  0  0  0
   -2.3992    0.1055    1.7410 C   0  0  0  0  0  0  0  0  0  0  0  0
   -3.6838   -0.6898    2.0038 C   0  0  0  0  0  0  0  0  0  0  0  0
   -2.4682    1.4198    2.5277 C   0  0  0  0  0  0  0  0  0  0  0  0
    0.0000   -0.6846    1.3194 C   0  0  0  0  0  0  0  0  0  0  0  0
    0.0000    0.0000    0.0000 C   0  0  0  0  0  0  0  0  0  0  0  0
   -0.0000   -0.6846   -1.2268 C   0  0  0  0  0  0  0  0  0  0  0  0
    0.2776   -2.5145   -1.2202 P   0  0  0  0  0  0  0  0  0  0  0  0
   -1.4758   -3.1282   -1.6742 C   0  0  0  0  0  0  0  0  0  0  0  0
   -1.4276   -4.6351   -1.9229 C   0  0  0  0  0  0  0  0  0  0  0  0
   -2.2096   -2.4174   -2.8074 C   0  0  0  0  0  0  0  0  0  0  0  0
   -2.2513   -2.8813   -0.3779 C   0  0  0  0  0  0  0  0  0  0  0  0
    1.4382   -2.8333   -2.7304 C   0  0  0  0  0  0  0  0  0  0  0  0
    2.0599   -4.1986   -2.4020 C   0  0  0  0  0  0  0  0  0  0  0  0
    2.5617   -1.7940   -2.7071 C   0  0  0  0  0  0  0  0  0  0  0  0
    0.8622   -2.9061   -4.1438 C   0  0  0  0  0  0  0  0  0  0  0  0
   -0.0998    0.0570   -2.4008 C   0  0  0  0  0  0  0  0  0  0  0  0
   -0.1570    1.4383   -2.3856 C   0  0  0  0  0  0  0  0  0  0  0  0
   -0.0861    2.1128   -1.1803 C   0  0  0  0  0  0  0  0  0  0  0  0
   -0.0144    1.3917   -0.0039 C   0  0  0  0  0  0  0  0  0  0  0  0
    2.6895   -3.2916    0.8152 H   0  0  0  0  0  0  0  0  0  0  0  0
    4.1343   -2.3623    0.3898 H   0  0  0  0  0  0  0  0  0  0  0  0
    3.7227   -2.6132    2.0780 H   0  0  0  0  0  0  0  0  0  0  0  0
    2.2420   -0.9257    0.0123 H   0  0  0  0  0  0  0  0  0  0  0  0
    2.6952    0.9410    1.5375 H   0  0  0  0  0  0  0  0  0  0  0  0
    3.4754   -0.1472    2.6876 H   0  0  0  0  0  0  0  0  0  0  0  0
    4.2058    0.1359    1.1027 H   0  0  0  0  0  0  0  0  0  0  0  0
    2.0509   -2.3608    3.4254 H   0  0  0  0  0  0  0  0  0  0  0  0
    1.0126   -3.0532    5.3307 H   0  0  0  0  0  0  0  0  0  0  0  0
   -0.7944   -4.4786    4.4022 H   0  0  0  0  0  0  0  0  0  0  0  0
   -0.9501   -4.2959    6.1529 H   0  0  0  0  0  0  0  0  0  0  0  0
   -2.0114   -3.3920    5.0714 H   0  0  0  0  0  0  0  0  0  0  0  0
   -0.1830   -2.1226    7.2676 H   0  0  0  0  0  0  0  0  0  0  0  0
    0.4623   -0.8152    6.2692 H   0  0  0  0  0  0  0  0  0  0  0  0
   -1.2561   -1.2073    6.2093 H   0  0  0  0  0  0  0  0  0  0  0  0
   -2.0097   -1.2702    3.9733 H   0  0  0  0  0  0  0  0  0  0  0  0
   -2.3522    0.3488    0.6745 H   0  0  0  0  0  0  0  0  0  0  0  0
   -3.5832   -1.7227    1.6845 H   0  0  0  0  0  0  0  0  0  0  0  0
   -4.5133   -0.2386    1.4630 H   0  0  0  0  0  0  0  0  0  0  0  0
   -3.9363   -0.6822    3.0614 H   0  0  0  0  0  0  0  0  0  0  0  0
   -1.6103    2.0521    2.3179 H   0  0  0  0  0  0  0  0  0  0  0  0
   -3.3707    1.9671    2.2625 H   0  0  0  0  0  0  0  0  0  0  0  0
   -2.4862    1.2189    3.5967 H   0  0  0  0  0  0  0  0  0  0  0  0
   -2.4397   -5.0405   -1.9318 H   0  0  0  0  0  0  0  0  0  0  0  0
   -0.8709   -5.1314   -1.1291 H   0  0  0  0  0  0  0  0  0  0  0  0
   -0.9659   -4.8776   -2.8764 H   0  0  0  0  0  0  0  0  0  0  0  0
   -1.7341   -2.5684   -3.7706 H   0  0  0  0  0  0  0  0  0  0  0  0
   -3.2240   -2.8131   -2.8721 H   0  0  0  0  0  0  0  0  0  0  0  0
   -2.2809   -1.3493   -2.6137 H   0  0  0  0  0  0  0  0  0  0  0  0
   -1.7439   -3.3372    0.4719 H   0  0  0  0  0  0  0  0  0  0  0  0
   -3.2555   -3.2994   -0.4482 H   0  0  0  0  0  0  0  0  0  0  0  0
   -2.3327   -1.8140   -0.1966 H   0  0  0  0  0  0  0  0  0  0  0  0
    2.5122   -4.1838   -1.4122 H   0  0  0  0  0  0  0  0  0  0  0  0
    1.3138   -4.9888   -2.4225 H   0  0  0  0  0  0  0  0  0  0  0  0
    2.8356   -4.4450   -3.1266 H   0  0  0  0  0  0  0  0  0  0  0  0
    2.1912   -0.7882   -2.8917 H   0  0  0  0  0  0  0  0  0  0  0  0
    3.2954   -2.0316   -3.4778 H   0  0  0  0  0  0  0  0  0  0  0  0
    3.0723   -1.8035   -1.7477 H   0  0  0  0  0  0  0  0  0  0  0  0
    0.1021   -3.6770   -4.2308 H   0  0  0  0  0  0  0  0  0  0  0  0
    1.6682   -3.1641   -4.8329 H   0  0  0  0  0  0  0  0  0  0  0  0
    0.4455   -1.9598   -4.4768 H   0  0  0  0  0  0  0  0  0  0  0  0
   -0.1356   -0.4519   -3.3501 H   0  0  0  0  0  0  0  0  0  0  0  0
   -0.2393    1.9849   -3.3144 H   0  0  0  0  0  0  0  0  0  0  0  0
   -0.0927    3.1928   -1.1553 H   0  0  0  0  0  0  0  0  0  0  0  0
    0.0446    1.9131    0.9405 H   0  0  0  0  0  0  0  0  0  0  0  0
  1 32  1  0
  1  2  1  0
  2 34  1  0
  2  3  1  0
  3 37  1  0
  3 35  1  0
  4  2  1  0
  4 15  1  0
  5  4  2  0
  6  5  1  0
  6 10  2  0
  7  9  1  0
  7  6  1  0
  8 42  1  0
  8  7  1  0
  9 45  1  0
  9 44  1  0
 10 11  1  0
 11 15  2  0
 11 12  1  0
 12 47  1  0
 12 14  1  0
 13 49  1  0
 13 12  1  0
 14 52  1  0
 14 51  1  0
 15 16  1  0
 16 30  1  0
 17 16  2  0
 17 27  1  0
 18 23  1  0
 18 17  1  0
 19 18  1  0
 19 21  1  0
 20 56  1  0
 20 19  1  0
 21 57  1  0
 21 59  1  0
 22 19  1  0
 22 62  1  0
 23 26  1  0
 23 25  1  0
 24 23  1  0
 25 66  1  0
 26 71  1  0
 27 28  2  0
 28 29  1  0
 28 73  1  0
 29 74  1  0
 30 75  1  0
 30 29  2  0
 31  1  1  0
 33  1  1  0
 36  3  1  0
 38  5  1  0
 39  7  1  0
 40  8  1  0
 41  8  1  0
 43  9  1  0
 46 10  1  0
 48 13  1  0
 50 13  1  0
 53 14  1  0
 54 20  1  0
 55 20  1  0
 58 21  1  0
 60 22  1  0
 61 22  1  0
 63 24  1  0
 64 24  1  0
 65 24  1  0
 67 25  1  0
 68 25  1  0
 69 26  1  0
 70 26  1  0
 72 27  1  0
M  END
$$$$
