Standard file
     RDKit          3D

107114  0  0  1  0  0  0  0  0999 V2000
    3.7129   -1.1086    1.8655 C   0  0  0  0  0  0  0  0  0  0  0  0
    2.4958   -0.2102    1.6196 C   0  0  2  0  0  0  0  0  0  0  0  0
    2.7009    1.1017    2.3868 C   0  0  0  0  0  0  0  0  0  0  0  0
    1.1877   -0.8349    2.0550 C   0  0  0  0  0  0  0  0  0  0  0  0
    1.1509   -1.4917    3.2775 C   0  0  0  0  0  0  0  0  0  0  0  0
   -0.0280   -1.9704    3.8212 C   0  0  0  0  0  0  0  0  0  0  0  0
   -0.0310   -2.6860    5.1502 C   0  0  2  0  0  0  0  0  0  0  0  0
   -0.6290   -4.0874    5.0164 C   0  0  0  0  0  0  0  0  0  0  0  0
   -0.7903   -1.8713    6.1999 C   0  0  0  0  0  0  0  0  0  0  0  0
   -1.2050   -1.7208    3.1361 C   0  0  0  0  0  0  0  0  0  0  0  0
   -1.2110   -1.0750    1.9104 C   0  0  0  0  0  0  0  0  0  0  0  0
   -2.5359   -0.6904    1.2952 C   0  0  1  0  0  0  0  0  0  0  0  0
   -3.5621   -1.8232    1.3260 C   0  0  0  0  0  0  0  0  0  0  0  0
   -3.0838    0.5342    2.0357 C   0  0  0  0  0  0  0  0  0  0  0  0
   -0.0000   -0.6833    1.3259 C   0  0  0  0  0  0  0  0  0  0  0  0
    0.0000    0.0000    0.0000 C   0  0  0  0  0  0  0  0  0  0  0  0
    0.0000   -0.6833   -1.2216 C   0  0  0  0  0  0  0  0  0  0  0  0
   -0.2196   -2.5309   -1.1305 P   0  0  0  0  0  0  0  0  0  0  0  0
    1.4274   -3.2339   -1.8073 C   0  0  1  0  0  0  0  0  0  0  0  0
    1.9746   -2.7534   -3.1480 C   0  0  0  0  0  0  0  0  0  0  0  0
    3.3217   -3.4264   -3.4287 C   0  0  2  0  0  0  0  0  0  0  0  0
    3.1549   -4.9441   -3.4515 C   0  0  0  0  0  0  0  0  0  0  0  0
    2.4401   -2.8551   -0.7230 C   0  0  0  0  0  0  0  0  0  0  0  0
    3.7950   -3.5089   -0.9918 C   0  0  2  0  0  0  0  0  0  0  0  0
    4.3244   -3.0400   -2.3447 C   0  0  0  0  0  0  0  0  0  0  0  0
    3.6402   -5.0275   -1.0034 C   0  0  0  0  0  0  0  0  0  0  0  0
    2.6430   -5.4149   -2.0916 C   0  0  1  0  0  0  0  0  0  0  0  0
    1.2919   -4.7596   -1.8075 C   0  0  0  0  0  0  0  0  0  0  0  0
   -1.6358   -2.9868   -2.3684 C   0  0  2  0  0  0  0  0  0  0  0  0
   -2.2581   -4.2251   -1.7021 C   0  0  0  0  0  0  0  0  0  0  0  0
   -1.3163   -3.3410   -3.8196 C   0  0  0  0  0  0  0  0  0  0  0  0
   -2.5928   -3.7668   -4.5528 C   0  0  1  0  0  0  0  0  0  0  0  0
   -3.1923   -4.9992   -3.8801 C   0  0  0  0  0  0  0  0  0  0  0  0
   -3.5289   -4.6567   -2.4311 C   0  0  2  0  0  0  0  0  0  0  0  0
   -4.5473   -3.5198   -2.3989 C   0  0  0  0  0  0  0  0  0  0  0  0
   -3.6087   -2.6280   -4.5319 C   0  0  0  0  0  0  0  0  0  0  0  0
   -3.9468   -2.2934   -3.0815 C   0  0  2  0  0  0  0  0  0  0  0  0
   -2.6746   -1.8640   -2.3506 C   0  0  0  0  0  0  0  0  0  0  0  0
    0.0445    0.0662   -2.4118 C   0  0  0  0  0  0  0  0  0  0  0  0
    0.0342   -0.6390   -3.5806 O   0  0  0  0  0  0  0  0  0  0  0  0
    0.1210    0.0571   -4.7957 C   0  0  0  0  0  0  0  0  0  0  0  0
    0.0834    1.4485   -2.3701 C   0  0  0  0  0  0  0  0  0  0  0  0
    0.0307    2.1202   -1.1596 C   0  0  0  0  0  0  0  0  0  0  0  0
   -0.0253    1.4068    0.0218 C   0  0  0  0  0  0  0  0  0  0  0  0
   -0.1354    1.9873    1.2591 O   0  0  0  0  0  0  0  0  0  0  0  0
   -0.2386    3.3863    1.3341 C   0  0  0  0  0  0  0  0  0  0  0  0
    3.4966   -2.1438    1.6252 H   0  0  0  0  0  0  0  0  0  0  0  0
    4.0256   -1.0584    2.9061 H   0  0  0  0  0  0  0  0  0  0  0  0
    4.5492   -0.7762    1.2537 H   0  0  0  0  0  0  0  0  0  0  0  0
    2.4324    0.0247    0.5525 H   0  0  0  0  0  0  0  0  0  0  0  0
    3.6122    1.5942    2.0524 H   0  0  0  0  0  0  0  0  0  0  0  0
    2.7852    0.9020    3.4530 H   0  0  0  0  0  0  0  0  0  0  0  0
    1.8608    1.7692    2.2360 H   0  0  0  0  0  0  0  0  0  0  0  0
    2.0675   -1.6214    3.8333 H   0  0  0  0  0  0  0  0  0  0  0  0
    1.0075   -2.7888    5.4855 H   0  0  0  0  0  0  0  0  0  0  0  0
   -1.6735   -4.0350    4.7194 H   0  0  0  0  0  0  0  0  0  0  0  0
   -0.5683   -4.6169    5.9651 H   0  0  0  0  0  0  0  0  0  0  0  0
   -0.0889   -4.6583    4.2643 H   0  0  0  0  0  0  0  0  0  0  0  0
   -0.7317   -2.3564    7.1722 H   0  0  0  0  0  0  0  0  0  0  0  0
   -0.3658   -0.8731    6.2832 H   0  0  0  0  0  0  0  0  0  0  0  0
   -1.8385   -1.7749    5.9277 H   0  0  0  0  0  0  0  0  0  0  0  0
   -2.1433   -2.0211    3.5748 H   0  0  0  0  0  0  0  0  0  0  0  0
   -2.3594   -0.4025    0.2552 H   0  0  0  0  0  0  0  0  0  0  0  0
   -3.9327   -1.9927    2.3340 H   0  0  0  0  0  0  0  0  0  0  0  0
   -3.1173   -2.7468    0.9639 H   0  0  0  0  0  0  0  0  0  0  0  0
   -4.4159   -1.5728    0.6984 H   0  0  0  0  0  0  0  0  0  0  0  0
   -3.2868    0.2892    3.0761 H   0  0  0  0  0  0  0  0  0  0  0  0
   -2.3572    1.3412    2.0130 H   0  0  0  0  0  0  0  0  0  0  0  0
   -4.0076    0.8762    1.5724 H   0  0  0  0  0  0  0  0  0  0  0  0
    2.1216   -1.6737   -3.1165 H   0  0  0  0  0  0  0  0  0  0  0  0
    1.2855   -2.9788   -3.9585 H   0  0  0  0  0  0  0  0  0  0  0  0
    3.6902   -3.0867   -4.4048 H   0  0  0  0  0  0  0  0  0  0  0  0
    4.1122   -5.4212   -3.6764 H   0  0  0  0  0  0  0  0  0  0  0  0
    2.4478   -5.2293   -4.2348 H   0  0  0  0  0  0  0  0  0  0  0  0
    2.5551   -1.7704   -0.7045 H   0  0  0  0  0  0  0  0  0  0  0  0
    2.0552   -3.1690    0.2515 H   0  0  0  0  0  0  0  0  0  0  0  0
    4.5024   -3.2210   -0.2057 H   0  0  0  0  0  0  0  0  0  0  0  0
    5.2946   -3.5004   -2.5484 H   0  0  0  0  0  0  0  0  0  0  0  0
    4.4636   -1.9560   -2.3342 H   0  0  0  0  0  0  0  0  0  0  0  0
    3.2815   -5.3727   -0.0309 H   0  0  0  0  0  0  0  0  0  0  0  0
    4.6064   -5.5017   -1.1933 H   0  0  0  0  0  0  0  0  0  0  0  0
    2.5193   -6.5047   -2.1041 H   0  0  0  0  0  0  0  0  0  0  0  0
    0.9183   -5.0873   -0.8326 H   0  0  0  0  0  0  0  0  0  0  0  0
    0.5798   -5.0857   -2.5662 H   0  0  0  0  0  0  0  0  0  0  0  0
   -1.5413   -5.0488   -1.7012 H   0  0  0  0  0  0  0  0  0  0  0  0
   -2.4936   -3.9984   -0.6595 H   0  0  0  0  0  0  0  0  0  0  0  0
   -0.6051   -4.1659   -3.8671 H   0  0  0  0  0  0  0  0  0  0  0  0
   -0.8856   -2.4833   -4.3278 H   0  0  0  0  0  0  0  0  0  0  0  0
   -2.3370   -4.0083   -5.5924 H   0  0  0  0  0  0  0  0  0  0  0  0
   -2.4795   -5.8270   -3.9120 H   0  0  0  0  0  0  0  0  0  0  0  0
   -4.0941   -5.3144   -4.4110 H   0  0  0  0  0  0  0  0  0  0  0  0
   -3.9487   -5.5389   -1.9329 H   0  0  0  0  0  0  0  0  0  0  0  0
   -4.8052   -3.2819   -1.3646 H   0  0  0  0  0  0  0  0  0  0  0  0
   -5.4633   -3.8230   -2.9125 H   0  0  0  0  0  0  0  0  0  0  0  0
   -4.5127   -2.9222   -5.0714 H   0  0  0  0  0  0  0  0  0  0  0  0
   -3.1924   -1.7485   -5.0297 H   0  0  0  0  0  0  0  0  0  0  0  0
   -4.6705   -1.4692   -3.0544 H   0  0  0  0  0  0  0  0  0  0  0  0
   -2.2725   -0.9710   -2.8291 H   0  0  0  0  0  0  0  0  0  0  0  0
   -2.9190   -1.6136   -1.3186 H   0  0  0  0  0  0  0  0  0  0  0  0
    1.0409    0.6478   -4.8604 H   0  0  0  0  0  0  0  0  0  0  0  0
    0.1349   -0.7028   -5.5770 H   0  0  0  0  0  0  0  0  0  0  0  0
   -0.7426    0.7138   -4.9512 H   0  0  0  0  0  0  0  0  0  0  0  0
    0.1306    2.0310   -3.2762 H   0  0  0  0  0  0  0  0  0  0  0  0
    0.0297    3.1983   -1.1673 H   0  0  0  0  0  0  0  0  0  0  0  0
    0.6619    3.8824    0.9551 H   0  0  0  0  0  0  0  0  0  0  0  0
   -1.1131    3.7567    0.7884 H   0  0  0  0  0  0  0  0  0  0  0  0
   -0.3531    3.6160    2.3930 H   0  0  0  0  0  0  0  0  0  0  0  0
  1 49  1  0
  1  2  1  0
  2 50  1  6
  2  3  1  0
  3 53  1  0
  3 51  1  0
  4 15  1  0
  4  2  1  0
  5  4  2  0
  6 10  2  0
  6  5  1  0
  7  9  1  0
  7  6  1  0
  8 56  1  0
  8  7  1  0
  9 61  1  0
  9 60  1  0
 10 11  1  0
 11 12  1  0
 11 15  2  0
 12 14  1  0
 12 63  1  6
 13 66  1  0
 13 12  1  0
 14 69  1  0
 14 68  1  0
 15 16  1  0
 16 17  2  0
 16 44  1  0
 17 39  1  0
 18 17  1  0
 19 18  1  1
 19 20  1  0
 20 71  1  0
 20 70  1  0
 21 20  1  0
 21 72  1  6
 22 74  1  0
 22 21  1  0
 23 19  1  0
 23 75  1  0
 24 77  1  1
 24 23  1  0
 24 25  1  0
 25 21  1  0
 25 79  1  0
 26 27  1  0
 26 24  1  0
 27 82  1  6
 27 28  1  0
 27 22  1  0
 28 84  1  0
 28 19  1  0
 29 18  1  1
 29 31  1  0
 29 38  1  0
 30 29  1  0
 31 88  1  0
 32 31  1  0
 32 89  1  6
 32 36  1  0
 33 32  1  0
 34 92  1  1
 34 30  1  0
 34 33  1  0
 34 35  1  0
 35 37  1  0
 36 96  1  0
 37 38  1  0
 37 36  1  0
 37 97  1  6
 38 98  1  0
 39 42  2  0
 40 39  1  0
 40 41  1  0
 41102  1  0
 41100  1  0
 42103  1  0
 43 42  1  0
 43104  1  0
 44 43  2  0
 45 44  1  0
 45 46  1  0
 46106  1  0
 46105  1  0
 47  1  1  0
 48  1  1  0
 52  3  1  0
 54  5  1  0
  7 55  1  1
 57  8  1  0
 58  8  1  0
 59  9  1  0
 62 10  1  0
 64 13  1  0
 65 13  1  0
 67 14  1  0
 73 22  1  0
 76 23  1  0
 78 25  1  0
 80 26  1  0
 81 26  1  0
 83 28  1  0
 85 30  1  0
 86 30  1  0
 87 31  1  0
 90 33  1  0
 91 33  1  0
 93 35  1  0
 94 35  1  0
 95 36  1  0
 99 38  1  0
101 41  1  0
107 46  1  0
M  END
$$$$
