Standard file
 OpenBabel12142210053D

 83 84  0  0  0  0  0  0  0  0999 V2000
   -3.2485    1.1063   -1.2125 C   0  0  0  0  0  0  0  0  0  0  0  0
   -2.3453    1.2055    0.0164 C   0  0  0  0  0  0  0  0  0  0  0  0
   -2.9712    2.1295    1.0657 C   0  0  0  0  0  0  0  0  0  0  0  0
   -0.9585    1.7055   -0.3089 C   0  0  0  0  0  0  0  0  0  0  0  0
   -0.8023    2.7524   -1.1993 C   0  0  0  0  0  0  0  0  0  0  0  0
    0.4460    3.2958   -1.4598 C   0  0  0  0  0  0  0  0  0  0  0  0
    0.6283    4.3971   -2.4752 C   0  0  0  0  0  0  0  0  0  0  0  0
    0.2719    3.8945   -3.8758 C   0  0  0  0  0  0  0  0  0  0  0  0
   -0.2044    5.6280   -2.1121 C   0  0  0  0  0  0  0  0  0  0  0  0
    1.5232    2.8071   -0.7466 C   0  0  0  0  0  0  0  0  0  0  0  0
    1.4096    1.7751    0.1833 C   0  0  0  0  0  0  0  0  0  0  0  0
    2.6902    1.5192    0.9658 C   0  0  0  0  0  0  0  0  0  0  0  0
    2.9102    0.1746    1.6583 C   0  0  0  0  0  0  0  0  0  0  0  0
    2.8138    2.6370    2.0114 C   0  0  0  0  0  0  0  0  0  0  0  0
    0.1574    1.1760    0.3546 C   0  0  0  0  0  0  0  0  0  0  0  0
    0.0000    0.0000    1.2481 C   0  0  0  0  0  0  0  0  0  0  0  0
    0.0207   -1.3044    0.7407 C   0  0  0  0  0  0  0  0  0  0  0  0
   -0.3675   -1.4346   -1.0805 P   0  0  0  0  0  0  0  0  0  0  0  0
    1.2746   -1.9486   -1.9151 C   0  0  0  0  0  0  0  0  0  0  0  0
    0.9988   -2.3566   -3.3630 C   0  0  0  0  0  0  0  0  0  0  0  0
    2.0903   -3.0182   -1.2011 C   0  0  0  0  0  0  0  0  0  0  0  0
    2.0775   -0.6451   -1.9716 C   0  0  0  0  0  0  0  0  0  0  0  0
   -1.6246   -2.8939   -1.2337 C   0  0  0  0  0  0  0  0  0  0  0  0
   -2.4082   -2.5376   -2.5058 C   0  0  0  0  0  0  0  0  0  0  0  0
   -2.5951   -2.7963   -0.0544 C   0  0  0  0  0  0  0  0  0  0  0  0
   -1.1450   -4.3374   -1.3662 C   0  0  0  0  0  0  0  0  0  0  0  0
    0.1081   -2.3649    1.6621 C   0  0  0  0  0  0  0  0  0  0  0  0
    0.3017   -3.6173    1.1526 O   0  0  0  0  0  0  0  0  0  0  0  0
    0.4771   -4.6919    2.0380 C   0  0  0  0  0  0  0  0  0  0  0  0
    0.0188   -2.1165    3.0217 C   0  0  0  0  0  0  0  0  0  0  0  0
   -0.1431   -0.8276    3.5051 C   0  0  0  0  0  0  0  0  0  0  0  0
   -0.1179    0.2387    2.6260 C   0  0  0  0  0  0  0  0  0  0  0  0
   -0.2073    1.5551    3.0007 O   0  0  0  0  0  0  0  0  0  0  0  0
   -0.3628    1.8490    4.3646 C   0  0  0  0  0  0  0  0  0  0  0  0
   -3.5799    2.0883   -1.5412 H   0  0  0  0  0  0  0  0  0  0  0  0
   -2.7149    0.6278   -2.0300 H   0  0  0  0  0  0  0  0  0  0  0  0
   -4.1349    0.5193   -0.9787 H   0  0  0  0  0  0  0  0  0  0  0  0
   -2.2501    0.2086    0.4563 H   0  0  0  0  0  0  0  0  0  0  0  0
   -2.3284    2.1933    1.9390 H   0  0  0  0  0  0  0  0  0  0  0  0
   -3.0951    3.1316    0.6601 H   0  0  0  0  0  0  0  0  0  0  0  0
   -3.9466    1.7540    1.3701 H   0  0  0  0  0  0  0  0  0  0  0  0
   -1.6683    3.1510   -1.7024 H   0  0  0  0  0  0  0  0  0  0  0  0
    1.6847    4.6895   -2.4760 H   0  0  0  0  0  0  0  0  0  0  0  0
    0.4434    4.6750   -4.6144 H   0  0  0  0  0  0  0  0  0  0  0  0
   -0.7731    3.5983   -3.9229 H   0  0  0  0  0  0  0  0  0  0  0  0
    0.8831    3.0322   -4.1336 H   0  0  0  0  0  0  0  0  0  0  0  0
    0.0000    6.4406   -2.8065 H   0  0  0  0  0  0  0  0  0  0  0  0
    0.0357    5.9629   -1.1053 H   0  0  0  0  0  0  0  0  0  0  0  0
   -1.2669    5.4025   -2.1539 H   0  0  0  0  0  0  0  0  0  0  0  0
    2.4977    3.2474   -0.9134 H   0  0  0  0  0  0  0  0  0  0  0  0
    3.5131    1.6419    0.2491 H   0  0  0  0  0  0  0  0  0  0  0  0
    2.6709   -0.6653    1.0136 H   0  0  0  0  0  0  0  0  0  0  0  0
    2.3173    0.0880    2.5626 H   0  0  0  0  0  0  0  0  0  0  0  0
    3.9608    0.0961    1.9377 H   0  0  0  0  0  0  0  0  0  0  0  0
    1.9693    2.5957    2.6934 H   0  0  0  0  0  0  0  0  0  0  0  0
    3.7345    2.5236    2.5809 H   0  0  0  0  0  0  0  0  0  0  0  0
    2.8170    3.6145    1.5355 H   0  0  0  0  0  0  0  0  0  0  0  0
    1.9411   -2.4222   -3.9077 H   0  0  0  0  0  0  0  0  0  0  0  0
    0.3786   -1.6082   -3.8544 H   0  0  0  0  0  0  0  0  0  0  0  0
    0.5086   -3.3223   -3.4354 H   0  0  0  0  0  0  0  0  0  0  0  0
    1.5637   -3.9658   -1.1682 H   0  0  0  0  0  0  0  0  0  0  0  0
    2.3147   -2.7146   -0.1815 H   0  0  0  0  0  0  0  0  0  0  0  0
    3.0344   -3.1672   -1.7274 H   0  0  0  0  0  0  0  0  0  0  0  0
    2.3112   -0.2849   -0.9770 H   0  0  0  0  0  0  0  0  0  0  0  0
    1.5101    0.1320   -2.4821 H   0  0  0  0  0  0  0  0  0  0  0  0
    3.0125   -0.8010   -2.5098 H   0  0  0  0  0  0  0  0  0  0  0  0
   -2.8577   -1.5518   -2.4155 H   0  0  0  0  0  0  0  0  0  0  0  0
   -1.7660   -2.5416   -3.3826 H   0  0  0  0  0  0  0  0  0  0  0  0
   -3.2067   -3.2616   -2.6680 H   0  0  0  0  0  0  0  0  0  0  0  0
   -3.4734   -3.4127   -0.2485 H   0  0  0  0  0  0  0  0  0  0  0  0
   -2.1405   -3.1406    0.8694 H   0  0  0  0  0  0  0  0  0  0  0  0
   -2.9296   -1.7705    0.0875 H   0  0  0  0  0  0  0  0  0  0  0  0
   -0.5889   -4.4964   -2.2852 H   0  0  0  0  0  0  0  0  0  0  0  0
   -0.5299   -4.6323   -0.5273 H   0  0  0  0  0  0  0  0  0  0  0  0
   -2.0180   -4.9918   -1.3945 H   0  0  0  0  0  0  0  0  0  0  0  0
   -0.4237   -4.8834    2.6323 H   0  0  0  0  0  0  0  0  0  0  0  0
    0.6820   -5.5627    1.4154 H   0  0  0  0  0  0  0  0  0  0  0  0
    1.3265   -4.5272    2.7093 H   0  0  0  0  0  0  0  0  0  0  0  0
    0.0523   -2.9257    3.7338 H   0  0  0  0  0  0  0  0  0  0  0  0
   -0.2532   -0.6833    4.5681 H   0  0  0  0  0  0  0  0  0  0  0  0
   -1.2820    1.4129    4.7708 H   0  0  0  0  0  0  0  0  0  0  0  0
    0.4927    1.5030    4.9557 H   0  0  0  0  0  0  0  0  0  0  0  0
   -0.4246    2.9349    4.4269 H   0  0  0  0  0  0  0  0  0  0  0  0
  1 37  1  0  0  0  0
  1  2  1  0  0  0  0
  2 38  1  0  0  0  0
  2  3  1  0  0  0  0
  3 41  1  0  0  0  0
  3 39  1  0  0  0  0
  4  2  1  0  0  0  0
  4 15  1  0  0  0  0
  5  4  2  0  0  0  0
  6  5  1  0  0  0  0
  6 10  2  0  0  0  0
  7  9  1  0  0  0  0
  7  6  1  0  0  0  0
  8  7  1  0  0  0  0
  9 48  1  0  0  0  0
 10 11  1  0  0  0  0
 11 15  2  0  0  0  0
 11 12  1  0  0  0  0
 12 13  1  0  0  0  0
 12 14  1  0  0  0  0
 13 54  1  0  0  0  0
 13 53  1  0  0  0  0
 14 56  1  0  0  0  0
 14 55  1  0  0  0  0
 15 16  1  0  0  0  0
 16 32  1  0  0  0  0
 17 16  2  0  0  0  0
 17 27  1  0  0  0  0
 18 17  1  0  0  0  0
 19 21  1  0  0  0  0
 19 18  1  0  0  0  0
 20 19  1  0  0  0  0
 21 61  1  0  0  0  0
 21 62  1  0  0  0  0
 22 19  1  0  0  0  0
 22 64  1  0  0  0  0
 23 18  1  0  0  0  0
 23 25  1  0  0  0  0
 24 67  1  0  0  0  0
 24 23  1  0  0  0  0
 25 72  1  0  0  0  0
 25 71  1  0  0  0  0
 26 23  1  0  0  0  0
 26 74  1  0  0  0  0
 27 30  2  0  0  0  0
 28 27  1  0  0  0  0
 28 29  1  0  0  0  0
 29 76  1  0  0  0  0
 29 78  1  0  0  0  0
 30 31  1  0  0  0  0
 30 79  1  0  0  0  0
 31 80  1  0  0  0  0
 32 33  1  0  0  0  0
 32 31  2  0  0  0  0
 33 34  1  0  0  0  0
 34 83  1  0  0  0  0
 34 81  1  0  0  0  0
 34 82  1  0  0  0  0
 35  1  1  0  0  0  0
 36  1  1  0  0  0  0
 40  3  1  0  0  0  0
 42  5  1  0  0  0  0
 43  7  1  0  0  0  0
 44  8  1  0  0  0  0
 45  8  1  0  0  0  0
 46  8  1  0  0  0  0
 47  9  1  0  0  0  0
 49  9  1  0  0  0  0
 50 10  1  0  0  0  0
 51 12  1  0  0  0  0
 52 13  1  0  0  0  0
 57 14  1  0  0  0  0
 58 20  1  0  0  0  0
 59 20  1  0  0  0  0
 60 20  1  0  0  0  0
 63 21  1  0  0  0  0
 65 22  1  0  0  0  0
 66 22  1  0  0  0  0
 68 24  1  0  0  0  0
 69 24  1  0  0  0  0
 70 25  1  0  0  0  0
 73 26  1  0  0  0  0
 75 26  1  0  0  0  0
 77 29  1  0  0  0  0
M  END
$$$$
