Standard file
 OpenBabel12142210053D

 75 76  0  0  0  0  0  0  0  0999 V2000
   -3.3646    0.3283   -1.0401 C   0  0  0  0  0  0  0  0  0  0  0  0
   -2.5094    0.6591    0.1818 C   0  0  0  0  0  0  0  0  0  0  0  0
   -3.2952    1.5253    1.1711 C   0  0  0  0  0  0  0  0  0  0  0  0
   -1.2237    1.3663   -0.1732 C   0  0  0  0  0  0  0  0  0  0  0  0
   -1.2418    2.3903   -1.1082 C   0  0  0  0  0  0  0  0  0  0  0  0
   -0.1175    3.1509   -1.3790 C   0  0  0  0  0  0  0  0  0  0  0  0
   -0.1635    4.2517   -2.4106 C   0  0  0  0  0  0  0  0  0  0  0  0
    0.8331    3.9810   -3.5393 C   0  0  0  0  0  0  0  0  0  0  0  0
    0.1032    5.6141   -1.7671 C   0  0  0  0  0  0  0  0  0  0  0  0
    1.0330    2.8933   -0.6523 C   0  0  0  0  0  0  0  0  0  0  0  0
    1.0918    1.8841    0.2969 C   0  0  0  0  0  0  0  0  0  0  0  0
    2.3644    1.7396    1.1065 C   0  0  0  0  0  0  0  0  0  0  0  0
    3.6304    1.7936    0.2429 C   0  0  0  0  0  0  0  0  0  0  0  0
    2.4383    2.8579    2.1530 C   0  0  0  0  0  0  0  0  0  0  0  0
   -0.0380    1.0805    0.5130 C   0  0  0  0  0  0  0  0  0  0  0  0
    0.0000    0.0000    1.5330 C   0  0  0  0  0  0  0  0  0  0  0  0
    0.0142   -1.3675    1.2113 C   0  0  0  0  0  0  0  0  0  0  0  0
   -0.2927   -1.8679   -0.5440 P   0  0  0  0  0  0  0  0  0  0  0  0
    1.4596   -2.4460   -1.0464 C   0  0  0  0  0  0  0  0  0  0  0  0
    1.3924   -3.0996   -2.4260 C   0  0  0  0  0  0  0  0  0  0  0  0
    2.2277   -3.3291   -0.0676 C   0  0  0  0  0  0  0  0  0  0  0  0
    2.2122   -1.1200   -1.1808 C   0  0  0  0  0  0  0  0  0  0  0  0
   -1.4271   -3.4252   -0.4120 C   0  0  0  0  0  0  0  0  0  0  0  0
   -2.0771   -3.4938   -1.8016 C   0  0  0  0  0  0  0  0  0  0  0  0
   -2.5340   -3.1346    0.6045 C   0  0  0  0  0  0  0  0  0  0  0  0
   -0.8234   -4.7952   -0.1064 C   0  0  0  0  0  0  0  0  0  0  0  0
    0.1499   -2.2910    2.2441 C   0  0  0  0  0  0  0  0  0  0  0  0
    0.2289   -1.8963    3.5668 C   0  0  0  0  0  0  0  0  0  0  0  0
    0.1441   -0.5533    3.8862 C   0  0  0  0  0  0  0  0  0  0  0  0
    0.0367    0.3786    2.8718 C   0  0  0  0  0  0  0  0  0  0  0  0
   -2.7580   -0.1613   -1.7987 H   0  0  0  0  0  0  0  0  0  0  0  0
   -4.1787   -0.3372   -0.7582 H   0  0  0  0  0  0  0  0  0  0  0  0
   -3.8058    1.2233   -1.4711 H   0  0  0  0  0  0  0  0  0  0  0  0
   -2.2563   -0.2767    0.6867 H   0  0  0  0  0  0  0  0  0  0  0  0
   -2.7108    1.6953    2.0727 H   0  0  0  0  0  0  0  0  0  0  0  0
   -3.5317    2.4903    0.7274 H   0  0  0  0  0  0  0  0  0  0  0  0
   -4.2248    1.0331    1.4496 H   0  0  0  0  0  0  0  0  0  0  0  0
   -2.1582    2.6136   -1.6331 H   0  0  0  0  0  0  0  0  0  0  0  0
   -1.1704    4.2713   -2.8431 H   0  0  0  0  0  0  0  0  0  0  0  0
    0.6322    3.0148   -3.9969 H   0  0  0  0  0  0  0  0  0  0  0  0
    0.7549    4.7506   -4.3046 H   0  0  0  0  0  0  0  0  0  0  0  0
    1.8525    3.9752   -3.1613 H   0  0  0  0  0  0  0  0  0  0  0  0
    0.0000    6.4073   -2.5047 H   0  0  0  0  0  0  0  0  0  0  0  0
   -0.6037    5.7965   -0.9604 H   0  0  0  0  0  0  0  0  0  0  0  0
    1.1091    5.6576   -1.3570 H   0  0  0  0  0  0  0  0  0  0  0  0
    1.9072    3.5021   -0.8201 H   0  0  0  0  0  0  0  0  0  0  0  0
    2.3432    0.7803    1.6339 H   0  0  0  0  0  0  0  0  0  0  0  0
    3.5199    1.2014   -0.6605 H   0  0  0  0  0  0  0  0  0  0  0  0
    4.4780    1.4102    0.8076 H   0  0  0  0  0  0  0  0  0  0  0  0
    3.8613    2.8163   -0.0452 H   0  0  0  0  0  0  0  0  0  0  0  0
    1.5951    2.8167    2.8364 H   0  0  0  0  0  0  0  0  0  0  0  0
    3.3546    2.7670    2.7329 H   0  0  0  0  0  0  0  0  0  0  0  0
    2.4311    3.8308    1.6662 H   0  0  0  0  0  0  0  0  0  0  0  0
    2.3978   -3.2040   -2.8345 H   0  0  0  0  0  0  0  0  0  0  0  0
    0.8117   -2.4812   -3.1091 H   0  0  0  0  0  0  0  0  0  0  0  0
    0.9465   -4.0900   -2.3879 H   0  0  0  0  0  0  0  0  0  0  0  0
    1.7697   -4.3039    0.0613 H   0  0  0  0  0  0  0  0  0  0  0  0
    3.2368   -3.4844   -0.4516 H   0  0  0  0  0  0  0  0  0  0  0  0
    2.3121   -2.8485    0.9047 H   0  0  0  0  0  0  0  0  0  0  0  0
    1.6802   -0.4359   -1.8415 H   0  0  0  0  0  0  0  0  0  0  0  0
    3.2108   -1.2870   -1.5846 H   0  0  0  0  0  0  0  0  0  0  0  0
    2.3069   -0.6514   -0.2061 H   0  0  0  0  0  0  0  0  0  0  0  0
   -2.5493   -2.5451   -2.0493 H   0  0  0  0  0  0  0  0  0  0  0  0
   -1.3435   -3.7191   -2.5714 H   0  0  0  0  0  0  0  0  0  0  0  0
   -2.8417   -4.2701   -1.8235 H   0  0  0  0  0  0  0  0  0  0  0  0
   -2.1438   -3.0302    1.6143 H   0  0  0  0  0  0  0  0  0  0  0  0
   -3.2555   -3.9520    0.6028 H   0  0  0  0  0  0  0  0  0  0  0  0
   -3.0643   -2.2226    0.3429 H   0  0  0  0  0  0  0  0  0  0  0  0
   -0.0742   -5.0789   -0.8397 H   0  0  0  0  0  0  0  0  0  0  0  0
   -1.6192   -5.5409   -0.1486 H   0  0  0  0  0  0  0  0  0  0  0  0
   -0.3849   -4.8491    0.8859 H   0  0  0  0  0  0  0  0  0  0  0  0
    0.1970   -3.3429    2.0145 H   0  0  0  0  0  0  0  0  0  0  0  0
    0.3389   -2.6379    4.3453 H   0  0  0  0  0  0  0  0  0  0  0  0
    0.1674   -0.2326    4.9175 H   0  0  0  0  0  0  0  0  0  0  0  0
   -0.0333    1.4289    3.1153 H   0  0  0  0  0  0  0  0  0  0  0  0
  1 32  1  0  0  0  0
  1  2  1  0  0  0  0
  2 34  1  0  0  0  0
  2  3  1  0  0  0  0
  3 37  1  0  0  0  0
  3 35  1  0  0  0  0
  4  2  1  0  0  0  0
  4 15  1  0  0  0  0
  5  4  2  0  0  0  0
  6  5  1  0  0  0  0
  6 10  2  0  0  0  0
  7  9  1  0  0  0  0
  7  6  1  0  0  0  0
  8 42  1  0  0  0  0
  8  7  1  0  0  0  0
  9 45  1  0  0  0  0
  9 44  1  0  0  0  0
 10 11  1  0  0  0  0
 11 15  2  0  0  0  0
 11 12  1  0  0  0  0
 12 47  1  0  0  0  0
 12 14  1  0  0  0  0
 13 49  1  0  0  0  0
 13 12  1  0  0  0  0
 14 52  1  0  0  0  0
 14 51  1  0  0  0  0
 15 16  1  0  0  0  0
 16 30  1  0  0  0  0
 17 16  2  0  0  0  0
 17 27  1  0  0  0  0
 18 23  1  0  0  0  0
 18 17  1  0  0  0  0
 19 18  1  0  0  0  0
 19 21  1  0  0  0  0
 20 56  1  0  0  0  0
 20 19  1  0  0  0  0
 21 57  1  0  0  0  0
 21 59  1  0  0  0  0
 22 19  1  0  0  0  0
 22 62  1  0  0  0  0
 23 26  1  0  0  0  0
 23 25  1  0  0  0  0
 24 23  1  0  0  0  0
 25 66  1  0  0  0  0
 26 71  1  0  0  0  0
 27 28  2  0  0  0  0
 28 29  1  0  0  0  0
 28 73  1  0  0  0  0
 29 74  1  0  0  0  0
 30 75  1  0  0  0  0
 30 29  2  0  0  0  0
 31  1  1  0  0  0  0
 33  1  1  0  0  0  0
 36  3  1  0  0  0  0
 38  5  1  0  0  0  0
 39  7  1  0  0  0  0
 40  8  1  0  0  0  0
 41  8  1  0  0  0  0
 43  9  1  0  0  0  0
 46 10  1  0  0  0  0
 48 13  1  0  0  0  0
 50 13  1  0  0  0  0
 53 14  1  0  0  0  0
 54 20  1  0  0  0  0
 55 20  1  0  0  0  0
 58 21  1  0  0  0  0
 60 22  1  0  0  0  0
 61 22  1  0  0  0  0
 63 24  1  0  0  0  0
 64 24  1  0  0  0  0
 65 24  1  0  0  0  0
 67 25  1  0  0  0  0
 68 25  1  0  0  0  0
 69 26  1  0  0  0  0
 70 26  1  0  0  0  0
 72 27  1  0  0  0  0
M  END
$$$$
