Standard file
 OpenBabel12142210053D

 83 86  0  0  0  0  0  0  0  0999 V2000
   -3.5877    0.3358   -1.5315 C   0  0  0  0  0  0  0  0  0  0  0  0
   -2.7527    1.1240   -0.5191 C   0  0  0  0  0  0  0  0  0  0  0  0
   -3.5812    2.3201   -0.0356 C   0  0  0  0  0  0  0  0  0  0  0  0
   -1.4364    1.6188   -1.0843 C   0  0  0  0  0  0  0  0  0  0  0  0
   -1.3918    2.0346   -2.4067 C   0  0  0  0  0  0  0  0  0  0  0  0
   -0.2486    2.5829   -2.9603 C   0  0  0  0  0  0  0  0  0  0  0  0
   -0.2157    2.9942   -4.4116 C   0  0  0  0  0  0  0  0  0  0  0  0
    0.0553    4.4931   -4.5556 C   0  0  0  0  0  0  0  0  0  0  0  0
    0.8288    2.1789   -5.1766 C   0  0  0  0  0  0  0  0  0  0  0  0
    0.8442    2.7648   -2.1312 C   0  0  0  0  0  0  0  0  0  0  0  0
    0.8418    2.3856   -0.7945 C   0  0  0  0  0  0  0  0  0  0  0  0
    2.0667    2.7950    0.0016 C   0  0  0  0  0  0  0  0  0  0  0  0
    1.7400    3.9115    0.9979 C   0  0  0  0  0  0  0  0  0  0  0  0
    2.7856    1.6475    0.7012 C   0  0  0  0  0  0  0  0  0  0  0  0
   -0.2949    1.7483   -0.2770 C   0  0  0  0  0  0  0  0  0  0  0  0
   -0.3748    1.2931    1.1369 C   0  0  0  0  0  0  0  0  0  0  0  0
    0.0000    0.0000    1.5380 C   0  0  0  0  0  0  0  0  0  0  0  0
    0.7686   -1.0974    0.2677 P   0  0  0  0  0  0  0  0  0  0  0  0
   -0.7504   -2.0337   -0.3384 C   0  0  0  0  0  0  0  0  0  0  0  0
   -0.3088   -3.1115   -1.3406 C   0  0  0  0  0  0  0  0  0  0  0  0
   -1.3953   -4.1746   -1.5396 C   0  0  0  0  0  0  0  0  0  0  0  0
   -2.7801   -3.5444   -1.4491 C   0  0  0  0  0  0  0  0  0  0  0  0
   -3.0382   -3.0108   -0.0336 C   0  0  0  0  0  0  0  0  0  0  0  0
   -1.7333   -2.6177    0.6727 C   0  0  0  0  0  0  0  0  0  0  0  0
    1.7856   -2.3930    1.2060 C   0  0  0  0  0  0  0  0  0  0  0  0
    2.8955   -1.6987    1.9983 C   0  0  0  0  0  0  0  0  0  0  0  0
    4.0269   -2.6812    2.3268 C   0  0  0  0  0  0  0  0  0  0  0  0
    3.4932   -4.0923    2.6039 C   0  0  0  0  0  0  0  0  0  0  0  0
    2.0688   -4.0155    3.1373 C   0  0  0  0  0  0  0  0  0  0  0  0
    1.1204   -3.4925    2.0519 C   0  0  0  0  0  0  0  0  0  0  0  0
   -0.1252   -0.3416    2.8807 C   0  0  0  0  0  0  0  0  0  0  0  0
   -0.6255    0.5513    3.8112 C   0  0  0  0  0  0  0  0  0  0  0  0
   -1.0019    1.8205    3.4130 C   0  0  0  0  0  0  0  0  0  0  0  0
   -0.8743    2.1803    2.0837 C   0  0  0  0  0  0  0  0  0  0  0  0
   -4.3991   -0.1779   -1.0195 H   0  0  0  0  0  0  0  0  0  0  0  0
   -2.9838   -0.4009   -2.0551 H   0  0  0  0  0  0  0  0  0  0  0  0
   -4.0369    0.9973   -2.2683 H   0  0  0  0  0  0  0  0  0  0  0  0
   -2.5469    0.4789    0.3412 H   0  0  0  0  0  0  0  0  0  0  0  0
   -3.0797    2.8444    0.7717 H   0  0  0  0  0  0  0  0  0  0  0  0
   -3.7416    3.0201   -0.8535 H   0  0  0  0  0  0  0  0  0  0  0  0
   -4.5502    1.9813    0.3265 H   0  0  0  0  0  0  0  0  0  0  0  0
   -2.2700    1.9383   -3.0263 H   0  0  0  0  0  0  0  0  0  0  0  0
   -1.1991    2.7838   -4.8478 H   0  0  0  0  0  0  0  0  0  0  0  0
    0.0000    4.7871   -5.6018 H   0  0  0  0  0  0  0  0  0  0  0  0
   -0.6796    5.0668   -3.9947 H   0  0  0  0  0  0  0  0  0  0  0  0
    1.0445    4.7453   -4.1818 H   0  0  0  0  0  0  0  0  0  0  0  0
    0.6216    1.1152   -5.0809 H   0  0  0  0  0  0  0  0  0  0  0  0
    1.8257    2.3685   -4.7866 H   0  0  0  0  0  0  0  0  0  0  0  0
    0.8156    2.4425   -6.2321 H   0  0  0  0  0  0  0  0  0  0  0  0
    1.7316    3.2347   -2.5306 H   0  0  0  0  0  0  0  0  0  0  0  0
    2.7734    3.2143   -0.7248 H   0  0  0  0  0  0  0  0  0  0  0  0
    1.1584    4.6949    0.5160 H   0  0  0  0  0  0  0  0  0  0  0  0
    2.6621    4.3492    1.3756 H   0  0  0  0  0  0  0  0  0  0  0  0
    1.1773    3.5245    1.8423 H   0  0  0  0  0  0  0  0  0  0  0  0
    2.2080    1.2787    1.5433 H   0  0  0  0  0  0  0  0  0  0  0  0
    3.7507    1.9887    1.0725 H   0  0  0  0  0  0  0  0  0  0  0  0
    2.9492    0.8338   -0.0021 H   0  0  0  0  0  0  0  0  0  0  0  0
   -1.2823   -1.2477   -0.8882 H   0  0  0  0  0  0  0  0  0  0  0  0
   -0.0781   -2.6306   -2.2937 H   0  0  0  0  0  0  0  0  0  0  0  0
    0.6047   -3.6018   -0.9986 H   0  0  0  0  0  0  0  0  0  0  0  0
   -1.2624   -4.6568   -2.5101 H   0  0  0  0  0  0  0  0  0  0  0  0
   -1.3084   -4.9503   -0.7760 H   0  0  0  0  0  0  0  0  0  0  0  0
   -3.5452   -4.2763   -1.7147 H   0  0  0  0  0  0  0  0  0  0  0  0
   -2.8417   -2.7325   -2.1761 H   0  0  0  0  0  0  0  0  0  0  0  0
   -3.7065   -2.1514   -0.0867 H   0  0  0  0  0  0  0  0  0  0  0  0
   -3.5395   -3.7757    0.5638 H   0  0  0  0  0  0  0  0  0  0  0  0
   -1.9468   -1.8969    1.4652 H   0  0  0  0  0  0  0  0  0  0  0  0
   -1.3081   -3.5072    1.1310 H   0  0  0  0  0  0  0  0  0  0  0  0
    2.2911   -2.8865    0.3611 H   0  0  0  0  0  0  0  0  0  0  0  0
    3.3025   -0.8725    1.4156 H   0  0  0  0  0  0  0  0  0  0  0  0
    2.4868   -1.2752    2.9167 H   0  0  0  0  0  0  0  0  0  0  0  0
    4.5715   -2.3115    3.1981 H   0  0  0  0  0  0  0  0  0  0  0  0
    4.7323   -2.7194    1.4945 H   0  0  0  0  0  0  0  0  0  0  0  0
    4.1399   -4.6034    3.3193 H   0  0  0  0  0  0  0  0  0  0  0  0
    3.4919   -4.6828    1.6850 H   0  0  0  0  0  0  0  0  0  0  0  0
    2.0501   -3.3574    4.0086 H   0  0  0  0  0  0  0  0  0  0  0  0
    1.7310   -5.0011    3.4650 H   0  0  0  0  0  0  0  0  0  0  0  0
    0.2099   -3.1414    2.5331 H   0  0  0  0  0  0  0  0  0  0  0  0
    0.8443   -4.3218    1.3964 H   0  0  0  0  0  0  0  0  0  0  0  0
    0.1742   -1.3191    3.2187 H   0  0  0  0  0  0  0  0  0  0  0  0
   -0.7163    0.2544    4.8464 H   0  0  0  0  0  0  0  0  0  0  0  0
   -1.3878    2.5284    4.1322 H   0  0  0  0  0  0  0  0  0  0  0  0
   -1.1544    3.1763    1.7702 H   0  0  0  0  0  0  0  0  0  0  0  0
  1 35  1  0  0  0  0
  1  2  1  0  0  0  0
  2  3  1  0  0  0  0
  2 38  1  0  0  0  0
  3 41  1  0  0  0  0
  3 39  1  0  0  0  0
  4  2  1  0  0  0  0
  4 15  1  0  0  0  0
  5  4  2  0  0  0  0
  6  5  1  0  0  0  0
  6 10  2  0  0  0  0
  7  6  1  0  0  0  0
  8  7  1  0  0  0  0
  8 46  1  0  0  0  0
  8 45  1  0  0  0  0
  9 47  1  0  0  0  0
  9 48  1  0  0  0  0
  9  7  1  0  0  0  0
 10 11  1  0  0  0  0
 11 15  2  0  0  0  0
 11 12  1  0  0  0  0
 12 14  1  0  0  0  0
 12 13  1  0  0  0  0
 13 53  1  0  0  0  0
 13 54  1  0  0  0  0
 14 56  1  0  0  0  0
 14 55  1  0  0  0  0
 15 16  1  0  0  0  0
 16 17  2  0  0  0  0
 16 34  1  0  0  0  0
 17 31  1  0  0  0  0
 18 25  1  0  0  0  0
 18 17  1  0  0  0  0
 19 18  1  0  0  0  0
 19 24  1  0  0  0  0
 20 60  1  0  0  0  0
 20 19  1  0  0  0  0
 21 22  1  0  0  0  0
 21 20  1  0  0  0  0
 21 62  1  0  0  0  0
 22 23  1  0  0  0  0
 23 66  1  0  0  0  0
 23 24  1  0  0  0  0
 24 68  1  0  0  0  0
 24 67  1  0  0  0  0
 25 26  1  0  0  0  0
 25 30  1  0  0  0  0
 26 27  1  0  0  0  0
 26 71  1  0  0  0  0
 27 28  1  0  0  0  0
 27 72  1  0  0  0  0
 28 29  1  0  0  0  0
 28 74  1  0  0  0  0
 29 77  1  0  0  0  0
 29 76  1  0  0  0  0
 30 78  1  0  0  0  0
 30 29  1  0  0  0  0
 31 80  1  0  0  0  0
 31 32  2  0  0  0  0
 32 81  1  0  0  0  0
 33 32  1  0  0  0  0
 33 82  1  0  0  0  0
 34 33  2  0  0  0  0
 36  1  1  0  0  0  0
 37  1  1  0  0  0  0
 40  3  1  0  0  0  0
 42  5  1  0  0  0  0
 43  7  1  0  0  0  0
 44  8  1  0  0  0  0
 49  9  1  0  0  0  0
 50 10  1  0  0  0  0
 51 12  1  0  0  0  0
 52 13  1  0  0  0  0
 57 14  1  0  0  0  0
 58 19  1  0  0  0  0
 59 20  1  0  0  0  0
 61 21  1  0  0  0  0
 63 22  1  0  0  0  0
 64 22  1  0  0  0  0
 65 23  1  0  0  0  0
 69 25  1  0  0  0  0
 70 26  1  0  0  0  0
 73 27  1  0  0  0  0
 75 28  1  0  0  0  0
 79 30  1  0  0  0  0
 83 34  1  0  0  0  0
M  END
$$$$
